# generated using pymatgen
data_Nd3Al11
_symmetry_space_group_name_H-M   Immm
_cell_length_a   4.36307790
_cell_length_b   9.97432892
_cell_length_c   12.95781714
_cell_angle_alpha   90.00000000
_cell_angle_beta   90.00000000
_cell_angle_gamma   90.00000000
_symmetry_Int_Tables_number   71
_chemical_formula_structural   Nd3Al11
_chemical_formula_sum   'Nd6 Al22'
_cell_volume   563.90831666
_cell_formula_units_Z   2
loop_
 _symmetry_equiv_pos_site_id
 _symmetry_equiv_pos_as_xyz
  1  'x, y, z'
  2  '-x, -y, -z'
  3  '-x, -y, z'
  4  'x, y, -z'
  5  'x, -y, -z'
  6  '-x, y, z'
  7  '-x, y, -z'
  8  'x, -y, z'
  9  'x+1/2, y+1/2, z+1/2'
  10  '-x+1/2, -y+1/2, -z+1/2'
  11  '-x+1/2, -y+1/2, z+1/2'
  12  'x+1/2, y+1/2, -z+1/2'
  13  'x+1/2, -y+1/2, -z+1/2'
  14  '-x+1/2, y+1/2, z+1/2'
  15  '-x+1/2, y+1/2, -z+1/2'
  16  'x+1/2, -y+1/2, z+1/2'
loop_
 _atom_site_type_symbol
 _atom_site_label
 _atom_site_symmetry_multiplicity
 _atom_site_fract_x
 _atom_site_fract_y
 _atom_site_fract_z
 _atom_site_occupancy
  Nd  Nd0  4  0.00000000  0.00000000  0.31720041  1
  Nd  Nd1  2  0.00000000  0.00000000  0.00000000  1
  Al  Al2  8  0.00000000  0.27452085  0.13593955  1
  Al  Al3  8  0.00000000  0.36810718  0.33399153  1
  Al  Al4  4  0.00000000  0.21533047  0.50000000  1
  Al  Al5  2  0.00000000  0.50000000  0.00000000  1
